/*--------------------------------*- C++ -*----------------------------------*\
| =========                 |                                                 |
| \\      /  F ield         | OpenFOAM: The Open Source CFD Toolbox           |
|  \\    /   O peration     | Version:  2.3.1                                 |
|   \\  /    A nd           | Web:      www.OpenFOAM.org                      |
|    \\/     M anipulation  |                                                 |
\*---------------------------------------------------------------------------*/
FoamFile
{
    version     2.0;
    format      ascii;
    class       dictionary;
    location    "system";
    object      decomposeParDict;
}
// * * * * * * * * * * * * * * * * * * * * * * * * * * * * * * * * * * * * * //

numberOfSubdomains 16;

method          simple;

simpleCoeffs
{
    n               (4 4 1 );
    delta           0.001;
}

hierarchicalCoeffs
{
    n               ( 2 2 1 );
    delta           0.001;
    order           xyz;
}

manualCoeffs
{
    dataFile        "";
}

distributed     yes;

roots           ("/home/OpenFOAM/OpenFOAM/run/tutorials/incompressible/simpleFoam/pitzDaily"
		  "/mnt/nfs/pitzDaily" );


// ************************************************************************* //
